Version 4
SHEET 1 5224 1764
WIRE 3936 128 3888 128
WIRE 4112 128 4016 128
WIRE 3712 176 3120 176
WIRE 3120 192 3120 176
WIRE 3712 288 3712 176
WIRE 3776 288 3712 288
WIRE 3888 288 3888 128
WIRE 3888 288 3856 288
WIRE 3968 288 3888 288
WIRE 4112 304 4112 128
WIRE 4112 304 4032 304
WIRE 4160 304 4112 304
WIRE 4256 304 4160 304
WIRE 3968 320 3952 320
WIRE 3776 416 3120 416
WIRE 3904 416 3856 416
WIRE 3952 416 3952 320
WIRE 3952 416 3904 416
WIRE 3904 448 3904 416
FLAG 4000 272 VCC
FLAG 4000 336 VEE
FLAG 2496 752 0
FLAG 2304 672 VCC
FLAG 2304 752 0
FLAG 2496 672 VEE
FLAG 4160 304 vout_diff
FLAG 3264 624 0
FLAG 3280 320 0
FLAG 3904 528 0
FLAG 3120 272 0
FLAG 3120 496 0
SYMBOL Opamps\\UniversalOpamp2 4000 304 R0
SYMATTR InstName U2
SYMBOL voltage 2496 656 R0
WINDOW 123 0 0 Left 2
WINDOW 39 0 0 Left 2
SYMATTR InstName V2
SYMATTR Value -5
SYMBOL voltage 2304 656 R0
WINDOW 123 0 0 Left 2
WINDOW 39 0 0 Left 2
SYMATTR InstName V1
SYMATTR Value 5
SYMBOL res 4032 112 R90
WINDOW 0 0 56 VBottom 2
WINDOW 3 32 56 VTop 2
SYMATTR InstName R4
SYMATTR Value 100k
SYMBOL voltage 3280 224 R0
WINDOW 123 0 0 Left 2
WINDOW 39 0 0 Left 2
SYMATTR InstName V3
SYMATTR Value SINE(2.5 2.5 100)
SYMBOL voltage 3264 528 R0
WINDOW 123 0 0 Left 2
WINDOW 39 0 0 Left 2
SYMATTR InstName V4
SYMATTR Value SINE(2.5 2.5 50)
SYMBOL res 3872 272 R90
WINDOW 0 0 56 VBottom 2
WINDOW 3 32 56 VTop 2
SYMATTR InstName R3
SYMATTR Value 100k
SYMBOL res 3872 400 R90
WINDOW 0 0 56 VBottom 2
WINDOW 3 32 56 VTop 2
SYMATTR InstName R5
SYMATTR Value 100k
SYMBOL res 3888 432 R0
SYMATTR InstName R6
SYMATTR Value 100k
SYMBOL voltage 3120 176 R0
WINDOW 123 0 0 Left 2
WINDOW 39 0 0 Left 2
SYMATTR InstName V5
SYMATTR Value 2
SYMBOL voltage 3120 400 R0
WINDOW 123 0 0 Left 2
WINDOW 39 0 0 Left 2
SYMATTR InstName V6
SYMATTR Value 1
TEXT 2264 560 Left 2 !.tran 0 0.5s 0 10us startup uic
