Version 4
SHEET 1 5528 1764
WIRE 3936 128 3888 128
WIRE 4112 128 4016 128
WIRE 3712 176 3280 176
WIRE 3120 192 3120 176
WIRE 3280 240 3280 176
WIRE 4448 256 4368 256
WIRE 4496 256 4448 256
WIRE 4496 272 4496 256
WIRE 4544 272 4496 272
WIRE 3712 288 3712 176
WIRE 3776 288 3712 288
WIRE 3888 288 3888 128
WIRE 3888 288 3856 288
WIRE 3968 288 3888 288
WIRE 4720 288 4608 288
WIRE 4112 304 4112 128
WIRE 4112 304 4032 304
WIRE 4160 304 4112 304
WIRE 4256 304 4160 304
WIRE 4544 304 4512 304
WIRE 3968 320 3952 320
WIRE 5216 320 5040 320
WIRE 5328 320 5216 320
WIRE 4368 336 4368 320
WIRE 4448 336 4448 320
WIRE 4448 336 4368 336
WIRE 4512 336 4512 304
WIRE 4512 336 4448 336
WIRE 5040 368 5040 320
WIRE 5040 368 5008 368
WIRE 5056 368 5040 368
WIRE 4368 384 4368 336
WIRE 4448 384 4448 336
WIRE 3776 416 3120 416
WIRE 3904 416 3856 416
WIRE 3952 416 3952 320
WIRE 3952 416 3904 416
WIRE 5216 416 5216 320
WIRE 4720 432 4720 288
WIRE 4768 432 4720 432
WIRE 4944 432 4944 368
WIRE 4944 432 4768 432
WIRE 5120 432 5120 368
WIRE 5152 432 5120 432
WIRE 3904 448 3904 416
WIRE 4944 496 4944 432
WIRE 5040 496 5008 496
WIRE 5056 496 5040 496
WIRE 5120 496 5120 432
WIRE 4768 528 4768 432
WIRE 4800 528 4768 528
WIRE 4256 544 4256 304
WIRE 4448 544 4448 464
WIRE 4448 544 4256 544
WIRE 4880 544 4864 544
WIRE 4800 560 4768 560
WIRE 5040 592 5040 496
WIRE 5216 592 5216 496
WIRE 5216 592 5040 592
WIRE 4768 608 4768 560
WIRE 4880 608 4880 544
WIRE 4880 608 4768 608
WIRE 4768 640 4768 608
WIRE 5152 640 5152 432
WIRE 5152 640 4768 640
FLAG 4000 272 VCC
FLAG 4000 336 VEE
FLAG 2496 752 0
FLAG 2304 672 VCC
FLAG 2304 752 0
FLAG 2496 672 VEE
FLAG 4160 304 vout_diff
FLAG 3264 624 0
FLAG 3280 320 0
FLAG 3904 528 0
FLAG 3120 272 0
FLAG 3120 496 0
FLAG 4368 464 0
FLAG 4576 320 VEE
FLAG 4576 256 VCC
FLAG 3440 272 0
FLAG 4720 288 zero_detect
FLAG 5328 320 collision_detect
FLAG 4832 512 VCC
FLAG 4832 576 0
SYMBOL Opamps\\UniversalOpamp2 4000 304 R0
SYMATTR InstName U2
SYMBOL voltage 2496 656 R0
WINDOW 123 0 0 Left 2
WINDOW 39 0 0 Left 2
SYMATTR InstName V2
SYMATTR Value -5
SYMBOL voltage 2304 656 R0
WINDOW 123 0 0 Left 2
WINDOW 39 0 0 Left 2
SYMATTR InstName V1
SYMATTR Value 5
SYMBOL res 4032 112 R90
WINDOW 0 0 56 VBottom 2
WINDOW 3 32 56 VTop 2
SYMATTR InstName R4
SYMATTR Value 100k
SYMBOL voltage 3280 224 R0
WINDOW 123 0 0 Left 2
WINDOW 39 0 0 Left 2
SYMATTR InstName V3
SYMATTR Value SINE(2.5 2.5 10)
SYMBOL voltage 3264 528 R0
WINDOW 123 0 0 Left 2
WINDOW 39 0 0 Left 2
SYMATTR InstName V4
SYMATTR Value SINE(2.5 2.5 50)
SYMBOL res 3872 272 R90
WINDOW 0 0 56 VBottom 2
WINDOW 3 32 56 VTop 2
SYMATTR InstName R3
SYMATTR Value 100k
SYMBOL res 3872 400 R90
WINDOW 0 0 56 VBottom 2
WINDOW 3 32 56 VTop 2
SYMATTR InstName R5
SYMATTR Value 100k
SYMBOL res 3888 432 R0
SYMATTR InstName R6
SYMATTR Value 100k
SYMBOL voltage 3120 176 R0
WINDOW 123 0 0 Left 2
WINDOW 39 0 0 Left 2
SYMATTR InstName V5
SYMATTR Value 2
SYMBOL voltage 3120 400 R0
WINDOW 123 0 0 Left 2
WINDOW 39 0 0 Left 2
SYMATTR InstName V6
SYMATTR Value 1
SYMBOL Opamps\\UniversalOpamp2 4576 288 R0
SYMATTR InstName U1
SYMBOL res 4432 368 R0
SYMATTR InstName R1
SYMATTR Value 100k
SYMBOL res 4352 368 R0
SYMATTR InstName R2
SYMATTR Value 100k
SYMBOL diode 4432 256 R0
SYMATTR InstName D1
SYMATTR Value 1N914
SYMBOL diode 4384 320 R180
WINDOW 0 24 64 Left 2
WINDOW 3 24 0 Left 2
SYMATTR InstName D2
SYMATTR Value 1N914
SYMBOL voltage 3440 176 R0
WINDOW 123 0 0 Left 2
WINDOW 39 0 0 Left 2
SYMATTR InstName V7
SYMATTR Value PULSE(0 5.0 0 0.05 0.05 0.1)
SYMBOL diode 5120 352 R90
WINDOW 0 0 32 VBottom 2
WINDOW 3 32 32 VTop 2
SYMATTR InstName D3
SYMATTR Value 1N914
SYMBOL diode 4944 384 R270
WINDOW 0 32 32 VTop 2
WINDOW 3 0 32 VBottom 2
SYMATTR InstName D4
SYMATTR Value 1N914
SYMBOL diode 5008 480 R90
WINDOW 0 0 32 VBottom 2
WINDOW 3 32 32 VTop 2
SYMATTR InstName D5
SYMATTR Value 1N914
SYMBOL diode 5056 512 R270
WINDOW 0 32 32 VTop 2
WINDOW 3 0 32 VBottom 2
SYMATTR InstName D6
SYMATTR Value 1N914
SYMBOL res 5200 400 R0
SYMATTR InstName R8
SYMATTR Value 100k
SYMBOL Opamps\\UniversalOpamp2 4832 544 R0
SYMATTR InstName U3
TEXT 2264 560 Left 2 !.tran 0 0.5s 0 10us startup uic
