Version 4
SHEET 1 5224 1764
WIRE 3936 128 3888 128
WIRE 4112 128 4016 128
WIRE 3712 176 3280 176
WIRE 3120 192 3120 176
WIRE 3280 240 3280 176
WIRE 4448 256 4368 256
WIRE 4496 256 4448 256
WIRE 4496 272 4496 256
WIRE 4544 272 4496 272
WIRE 3712 288 3712 176
WIRE 3776 288 3712 288
WIRE 3888 288 3888 128
WIRE 3888 288 3856 288
WIRE 3968 288 3888 288
WIRE 4720 288 4608 288
WIRE 4112 304 4112 128
WIRE 4112 304 4032 304
WIRE 4160 304 4112 304
WIRE 4256 304 4160 304
WIRE 4544 304 4512 304
WIRE 3968 320 3952 320
WIRE 4368 336 4368 320
WIRE 4448 336 4448 320
WIRE 4448 336 4368 336
WIRE 4512 336 4512 304
WIRE 4512 336 4448 336
WIRE 4368 384 4368 336
WIRE 4448 384 4448 336
WIRE 4720 384 4720 368
WIRE 4864 384 4720 384
WIRE 4928 384 4864 384
WIRE 4720 400 4720 384
WIRE 4864 400 4864 384
WIRE 3776 416 3120 416
WIRE 3904 416 3856 416
WIRE 3952 416 3952 320
WIRE 3952 416 3904 416
WIRE 3904 448 3904 416
WIRE 4256 544 4256 304
WIRE 4448 544 4448 464
WIRE 4448 544 4256 544
FLAG 4000 272 VCC
FLAG 4000 336 VEE
FLAG 2496 752 0
FLAG 2304 672 VCC
FLAG 2304 752 0
FLAG 2496 672 VEE
FLAG 4160 304 vout_diff
FLAG 3264 624 0
FLAG 3280 320 0
FLAG 3904 528 0
FLAG 3120 272 0
FLAG 3120 496 0
FLAG 4368 464 0
FLAG 4576 320 VEE
FLAG 4576 256 VCC
FLAG 3440 272 0
FLAG 4720 480 0
FLAG 4864 464 0
SYMBOL Opamps\\UniversalOpamp2 4000 304 R0
SYMATTR InstName U2
SYMBOL voltage 2496 656 R0
WINDOW 123 0 0 Left 2
WINDOW 39 0 0 Left 2
SYMATTR InstName V2
SYMATTR Value -5
SYMBOL voltage 2304 656 R0
WINDOW 123 0 0 Left 2
WINDOW 39 0 0 Left 2
SYMATTR InstName V1
SYMATTR Value 5
SYMBOL res 4032 112 R90
WINDOW 0 0 56 VBottom 2
WINDOW 3 32 56 VTop 2
SYMATTR InstName R4
SYMATTR Value 100k
SYMBOL voltage 3280 224 R0
WINDOW 123 0 0 Left 2
WINDOW 39 0 0 Left 2
SYMATTR InstName V3
SYMATTR Value SINE(2.5 2.5 100)
SYMBOL voltage 3264 528 R0
WINDOW 123 0 0 Left 2
WINDOW 39 0 0 Left 2
SYMATTR InstName V4
SYMATTR Value SINE(2.5 2.5 50)
SYMBOL res 3872 272 R90
WINDOW 0 0 56 VBottom 2
WINDOW 3 32 56 VTop 2
SYMATTR InstName R3
SYMATTR Value 100k
SYMBOL res 3872 400 R90
WINDOW 0 0 56 VBottom 2
WINDOW 3 32 56 VTop 2
SYMATTR InstName R5
SYMATTR Value 100k
SYMBOL res 3888 432 R0
SYMATTR InstName R6
SYMATTR Value 100k
SYMBOL voltage 3120 176 R0
WINDOW 123 0 0 Left 2
WINDOW 39 0 0 Left 2
SYMATTR InstName V5
SYMATTR Value 2
SYMBOL voltage 3120 400 R0
WINDOW 123 0 0 Left 2
WINDOW 39 0 0 Left 2
SYMATTR InstName V6
SYMATTR Value 2
SYMBOL Opamps\\UniversalOpamp2 4576 288 R0
SYMATTR InstName U1
SYMBOL res 4432 368 R0
SYMATTR InstName R1
SYMATTR Value 100k
SYMBOL res 4352 368 R0
SYMATTR InstName R2
SYMATTR Value 100k
SYMBOL res 4704 272 R0
SYMATTR InstName R7
SYMATTR Value 100k
SYMBOL diode 4432 256 R0
SYMATTR InstName D1
SYMATTR Value 1N914
SYMBOL diode 4384 320 R180
WINDOW 0 24 64 Left 2
WINDOW 3 24 0 Left 2
SYMATTR InstName D2
SYMATTR Value 1N914
SYMBOL voltage 3440 176 R0
WINDOW 123 0 0 Left 2
WINDOW 39 0 0 Left 2
SYMATTR InstName V7
SYMATTR Value PULSE(0 5.0 0 0.05 0.05 0.1)
SYMBOL res 4704 384 R0
SYMATTR InstName R8
SYMATTR Value 100k
SYMBOL diode 4880 464 R180
WINDOW 0 24 64 Left 2
WINDOW 3 -73 33 Left 2
SYMATTR InstName D3
SYMATTR Value 1N914
TEXT 2264 560 Left 2 !.tran 0 0.5s 0 10us startup uic
